<div class="post-text" itemprop="text">
<p>Hi I'm having a function that looks like it is only working in a 2.x (2.7) system. But the rest of my program is written in python 3.4</p>
<p>The file <strong>a.py</strong> (version 2.7) was a script i could run in 2.7 by calling the script as:</p>
<pre><code>import psspy    
openPath='busSystem.raw'
saveToPath='busSystem_out.raw'

#Open a case file
psspy.read(0,openPath)
do some calculation...

#Save to another case file
psspy.rawd_2(0,1,[1,1,1,0,0,0,0],0,saveToPath)
</code></pre>
<p>And then calling the following code from python 3.4 in <strong>b.py</strong> workes</p>
<pre><code>import os
os.system('c:\python27\python a.py')
</code></pre>
<p>But then I wanted to change the script in <strong>a.py</strong> to be a function with kwargs such as:</p>
<pre><code>def run(openPath='busSystem.raw',saveToPath='busSystem_out.raw')
    #Open a case file
    psspy.read(0,openPath)
    do some calculation...

    #Save to another case file
    psspy.rawd_2(0,1,[1,1,1,0,0,0,0],0,saveToPath)
    do something more...
</code></pre>
<p>So I want to do something like</p>
<pre><code>import os
in = 'busSystem.raw'
out = 'busSystem_out.raw'
os.system('c:\python27\python a.py run(in, out)')
# Or
os.system('c:\python27\python a.py run(openPath=in,saveToPath=out)')
</code></pre>
<p>So the question is: </p>
<ul>
<li>how can I send parameters to another script's function?</li>
<li>can I use both args and kwargs?</li>
</ul>
<p>I know if I could have run the script with python 3.4 i could have just imported the function as </p>
<pre><code>from a import run
run(in,out)
</code></pre>
<p>My solution for this would be to read the whole python script as a string, use str.replace('busSystem.raw',in) and str.replace(''busSystem_out.raw',out) and save it back as a <strong>a_new.py</strong>
and run it as mentioned before.</p>
<p>The script in <strong>a.py</strong> need to be in python version 2.7, because it is interacting with Siemens PSS/E 33, which only communicates through py2.7. </p>
</div>
<div class="post-text" itemprop="text">
<p>Function calls work only within a single process and, generally, only within a single language.  So you have a script that can be run with no arguments.  Now you want this script to process command line arguments.  This has nothing, really, to do with function calls and keyword arguments.</p>
<p>You should read the <a href="https://docs.python.org/2.7/howto/argparse.html" rel="nofollow">Argparse Tutorial</a> in the Python documentation.  It introduces the concept of command line arguments, since you seem to be unfamiliar with it, and then shows some examples of using the built-in <a href="https://docs.python.org/2.7/library/argparse.html#module-argparse" rel="nofollow"><code>argparse</code></a> module to do the hard parts of parsing the arguments.</p>
<p>Then you should read about the <a href="https://docs.python.org/3/library/subprocess.html#module-subprocess" rel="nofollow"><code>subprocess</code></a> module.  It will work better for you than <code>os.system()</code>.</p>
<p>Alternatively, you could update the script so that works correctly in Python 3.  This is what I would start with.</p>
<p>Here is some untested example code.</p>
<p>In your existing script <code>a.py</code></p>
<pre><code>import argparse

parser = argparse.ArgumentParser()
parser.add_argument('openPath')
parser.add_argument('saveToPath')

args = parser.parse_args()

openPath=args.openPath
saveToPath=args.saveToPath

# ... the rest of the existing script
</code></pre>
<p>In your other program:</p>
<pre><code>import subprocess
in_ = 'busSystem.raw'
out = 'busSystem_out.raw'
subprocess.call([r'c:\python27\python', in, out])
</code></pre>
</div>
<span class="comment-copy">The correct method would be to just do <code>import your_python2_script</code> instead. If it fails due to syntax errors, then modify your script to make it usable in both Python 2 and Python 3.</span>
<span class="comment-copy">Unable to rewrite the script to python 3 because it is communicating to a commercial program that needs 2.7 for communication.</span>
<span class="comment-copy">If I don't need any output then, is there a way to to it? Have also edited my question for more information about the problem.</span>
